31
Structure1
C         -1.59490        3.13200        2.07460
C         -0.36230        3.92170        1.61850
C          0.78670        3.15370        1.15110
C          0.82580        1.80620        1.08210
C         -0.39130        0.96030        1.44930
C         -1.68700        1.79400        1.30410
C         -0.30880        5.27020        1.59100
C         -1.38530        6.24470        2.03960
N          1.86980        1.07580        0.55690
C          3.11090        1.56180       -0.02720
C          2.90950        1.99050       -1.48810
C          4.21080        0.49910        0.09020
H         -2.51000        3.68900        1.87560
H         -1.56180        2.96390        3.15160
H          1.65580        3.70430        0.82460
H         -0.27330        0.48740        2.42460
H         -0.50680        0.15160        0.72560
H         -2.54700        1.21700        1.64650
H         -1.86530        2.00610        0.24750
H          0.59220        5.74490        1.22670
H         -0.95930        6.97250        2.73060
H         -1.78330        6.78330        1.17940
H         -2.21650        5.76030        2.54950
H          1.72070        0.09270        0.38600
H          3.43980        2.42930        0.54960
H          3.83050        2.38780       -1.91540
H          2.58510        1.15560       -2.11020
H          2.15190        2.77120       -1.56760
H          5.15890        0.86800       -0.30270
H          4.37940        0.22120        1.13150
H          3.95580       -0.40870       -0.45790
31
Structure1
C         -1.62190        3.16890        1.82780
C         -0.30820        3.85540        1.43680
C          0.74040        3.01580        0.86730
C          0.63460        1.68390        0.67720
C         -0.61960        0.92650        1.10930
C         -1.35630        1.69960        2.22930
C         -0.06720        5.16930        1.63150
C         -1.02170        6.20760        2.19740
N          1.64020        0.85530        0.22120
C          3.00420        1.14540       -0.21070
C          3.89680        1.66300        0.92870
C          3.06250        2.01960       -1.47380
H         -2.34070        3.22930        1.00990
H         -2.08160        3.66500        2.68210
H          1.66430        3.49710        0.59310
H         -0.33400       -0.01720        1.57730
H         -1.24950        0.67060        0.25700
H         -0.75100        1.68520        3.13860
H         -2.29230        1.19900        2.48060
H          0.90010        5.56450        1.35190
H         -0.66530        6.55260        3.16820
H         -1.07210        7.06630        1.52760
H         -2.03650        5.83340        2.32320
H          1.43940       -0.13320        0.19390
H          3.41690        0.17570       -0.49810
H          4.93370        1.75440        0.60450
H          3.58110        2.64000        1.29160
H          3.88120        0.98030        1.77880
H          4.08560        2.11420       -1.83840
H          2.47010        1.58350       -2.27870
H          2.68400        3.02580       -1.30080
31
Structure1
C         -1.02320        3.03930        2.52040
C         -0.50210        4.03560        1.47770
C          0.46580        3.53830        0.50610
C          0.91880        2.27040        0.46280
C          0.38520        1.20590        1.42030
C         -1.01700        1.60620        1.93860
C         -0.92280        5.31550        1.39350
C         -1.91020        6.02300        2.30680
N          1.75300        1.85060       -0.55040
C          2.99010        1.08110       -0.44180
C          2.79500       -0.37230        0.01830
C          4.05140        1.81660        0.38980
H         -2.04850        3.27380        2.80530
H         -0.42700        3.09590        3.43170
H          0.83740        4.23100       -0.23560
H          1.09880        0.98250        2.21290
H          0.21680        0.27930        0.87060
H         -1.36030        0.89050        2.68670
H         -1.73520        1.55450        1.11740
H         -0.52260        5.94130        0.60730
H         -1.47840        6.95850        2.66300
H         -2.82410        6.25550        1.75990
H         -2.18050        5.43550        3.18290
H          1.83240        2.51630       -1.30470
H          3.37710        1.02630       -1.46190
H          3.70650       -0.95130       -0.13240
H          2.54690       -0.44060        1.07640
H          2.00340       -0.86380       -0.54810
H          4.99730        1.27430        0.39660
H          4.24790        2.81200       -0.00980
H          3.72950        1.93720        1.42510
31
Structure1
C         -1.59810        3.01910        1.40150
C         -0.46160        4.03680        1.55630
C          0.89920        3.55270        1.35010
C          1.21650        2.28000        1.04360
C          0.14280        1.19690        0.95000
C         -1.10120        1.60320        1.77620
C         -0.65670        5.32480        1.90980
C         -1.98440        6.02080        2.15960
N          2.53180        1.87660        0.96840
C          3.17640        1.08770       -0.07860
C          3.11110        1.78630       -1.44480
C          2.70850       -0.37460       -0.15020
H         -1.99230        3.04090        0.38490
H         -2.43020        3.26070        2.06220
H          1.70840        4.26050        1.46050
H          0.50450        0.28870        1.43320
H         -0.08240        0.94080       -0.08490
H         -0.85150        1.58570        2.83940
H         -1.89880        0.87170        1.64040
H          0.20630        5.96670        2.02430
H         -2.07590        6.28330        3.21380
H         -2.03590        6.93880        1.57370
H         -2.84530        5.41240        1.88670
H          3.18110        2.56190        1.32500
H          4.23110        1.05450        0.20390
H          3.66550        1.23140       -2.20200
H          2.08120        1.88350       -1.79100
H          3.53640        2.78930       -1.39740
H          3.37040       -0.96170       -0.78740
H          2.71340       -0.84040        0.83580
H          1.70540       -0.46740       -0.56350
31
Structure1
C         -1.47430        2.92220        1.90210
C         -0.44800        4.04960        1.74710
C          0.89330        3.67380        1.31350
C          1.28020        2.41730        1.01730
C          0.27950        1.25900        1.05170
C         -1.16780        1.78660        0.89970
C         -0.73400        5.35300        1.95130
C         -2.05530        5.94600        2.41210
N          2.55410        2.18100        0.53970
C          3.13530        1.08240       -0.22790
C          2.60150        1.01070       -1.66710
C          3.11950       -0.27130        0.50250
H         -2.48250        3.27980        1.69490
H         -1.48000        2.55030        2.92720
H          1.62740        4.46130        1.21820
H          0.43400        0.62390        1.92390
H          0.40770        0.62220        0.18060
H         -1.88070        0.97000        1.02140
H         -1.31010        2.16400       -0.11540
H          0.04590        6.08510        1.79140
H         -1.88610        6.60870        3.26110
H         -2.50320        6.52970        1.60770
H         -2.77690        5.19350        2.72630
H          3.14060        3.00060        0.48680
H          4.19050        1.35020       -0.31880
H          3.13300        0.25480       -2.24580
H          1.54120        0.76620       -1.70600
H          2.73250        1.96360       -2.18100
H          3.75680       -0.99320       -0.00880
H          3.49800       -0.17190        1.52040
H          2.12640       -0.71170        0.56150
31
Structure1
C         -1.55880        3.00600        1.64120
C         -0.47980        4.09370        1.60870
C          0.79490        3.74850        0.98860
C          1.09440        2.54070        0.47110
C          0.10090        1.37930        0.56230
C         -0.90020        1.61020        1.72010
C         -0.63840        5.31930        2.15190
C         -1.88100        5.87480        2.82800
N          2.36050        2.29520       -0.02250
C          3.11100        1.06340       -0.25300
C          2.48280        0.13270       -1.30440
C          3.49770        0.34630        1.05000
H         -2.20680        3.08570        0.76770
H         -2.19950        3.11650        2.51540
H          1.55490        4.51580        0.94670
H          0.61290        0.46540        0.85120
H         -0.36840        1.17920       -0.40080
H         -0.37600        1.52080        2.67420
H         -1.66240        0.83000        1.71950
H          0.18770        6.01600        2.10730
H         -1.69360        6.02050        3.89200
H         -2.13810        6.84020        2.39160
H         -2.75140        5.22900        2.72330
H          2.98170        3.09010        0.00310
H          4.05190        1.40310       -0.69200
H          3.18560       -0.64720       -1.59860
H          1.58510       -0.36810       -0.94790
H          2.21730        0.68400       -2.20710
H          4.14940       -0.50490        0.85120
H          4.03620        1.01680        1.72060
H          2.63070       -0.02570        1.59340
31
Structure1
C         -1.32150        3.14570        2.40440
C         -0.43920        3.95980        1.45010
C          0.56970        3.22890        0.69210
C          0.76920        1.89950        0.77870
C         -0.13500        1.00950        1.62880
C         -1.49760        1.70430        1.86930
C         -0.57950        5.28750        1.25170
C         -1.55600        6.22450        1.94300
N          1.63330        1.22020       -0.04610
C          3.06870        1.12370        0.18160
C          3.77800        2.48520        0.08640
C          3.69400        0.12160       -0.79800
H         -2.31370        3.58780        2.48990
H         -0.89500        3.14320        3.40800
H          1.18810        3.78020       -0.00160
H          0.36580        0.69410        2.54450
H         -0.37990        0.09830        1.08080
H         -2.10410        1.11530        2.55850
H         -2.05550        1.74190        0.93100
H          0.06950        5.77440        0.53640
H         -1.02000        7.08400        2.34620
H         -2.29470        6.58770        1.22820
H         -2.08740        5.75580        2.76980
H          1.28900        0.31970       -0.34370
H          3.21070        0.73970        1.19500
H          4.85450        2.38380        0.22630
H          3.60960        2.95530       -0.88310
H          3.42090        3.17250        0.85370
H          4.76340        0.00700       -0.61780
H          3.24380       -0.86670       -0.69810
H          3.56510        0.44120       -1.83310
31
Structure1
C         -1.71580        3.13090        1.58110
C         -0.43110        3.96050        1.46730
C          0.80200        3.23850        1.17590
C          0.87830        1.90470        1.00390
C         -0.33770        1.00250        1.20180
C         -1.38840        1.70790        2.09390
C         -0.38310        5.29510        1.66290
C         -1.54660        6.22490        1.96510
N          2.07220        1.23850        0.86520
C          2.78950        1.11090       -0.39590
C          3.96160        0.13250       -0.24220
C          3.28310        2.46340       -0.93710
H         -2.23110        3.09380        0.62070
H         -2.41010        3.58320        2.28860
H          1.72220        3.80140        1.11180
H         -0.05080        0.11080        1.76150
H         -0.73330        0.65430        0.24740
H         -1.00690        1.77990        3.11480
H         -2.29700        1.10720        2.15220
H          0.57400        5.79380        1.59060
H         -1.45550        6.62010        2.97700
H         -1.53870        7.06390        1.26910
H         -2.51720        5.73920        1.87780
H          2.10370        0.35380        1.34930
H          2.09150        0.69080       -1.12450
H          4.48840       -0.00520       -1.18700
H          4.68580        0.48880        0.49180
H          3.61920       -0.85120        0.08100
H          3.84520        2.34040       -1.86320
H          2.44910        3.13030       -1.15730
H          3.92930        2.96830       -0.21820
31
Structure1
C         -1.66660        3.15640        1.90310
C         -0.39790        3.93370        1.53260
C          0.66550        3.19400        0.86150
C          0.60850        1.87850        0.56420
C         -0.59210        1.02730        0.97100
C         -1.32400        1.67240        2.17240
C         -0.20720        5.23610        1.83180
C         -1.18570        6.17800        2.51380
N          1.64220        1.15130        0.01470
C          2.97530        1.60670       -0.35020
C          3.56570        0.71200       -1.44740
C          3.90030        1.66390        0.87440
H         -2.41400        3.25050        1.11460
H         -2.11930        3.55850        2.80910
H          1.56270        3.73480        0.60160
H         -0.24630        0.06400        1.34970
H         -1.23860        0.81070        0.12020
H         -0.68900        1.61140        3.05910
H         -2.22870        1.11050        2.40860
H          0.73170        5.69780        1.55770
H         -0.81150        6.45540        3.49950
H         -1.29590        7.08720        1.92230
H         -2.17860        5.74850        2.63760
H          1.56070        0.14570        0.00550
H          2.88670        2.61190       -0.76870
H          4.54630        1.06990       -1.76260
H          3.68210       -0.31850       -1.10930
H          2.92690        0.70060       -2.33150
H          4.88910        2.03770        0.60750
H          3.49820        2.32870        1.63990
H          4.02590        0.68040        1.32860
31
Structure1
C         -1.71570        3.15970        1.77130
C         -0.42780        3.93420        1.46680
C          0.71270        3.16700        0.97800
C          0.70870        1.83000        0.79320
C         -0.51540        0.98700        1.14230
C         -1.38030        1.71230        2.20120
C         -0.29170        5.26230        1.66670
C         -1.35250        6.23410        2.15650
N          1.80370        1.08480        0.41300
C          3.12640        1.55220        0.02610
C          3.14380        2.03250       -1.43240
C          4.17210        0.45430        0.25930
H         -2.37850        3.16890        0.90530
H         -2.26650        3.62550        2.58800
H          1.62100        3.70710        0.75800
H         -0.19620        0.06780        1.63660
H         -1.06450        0.68400        0.25050
H         -0.84150        1.74160        3.15090
H         -2.29580        1.15000        2.38980
H          0.66320        5.72260        1.45150
H         -1.08880        6.60670        3.14650
H         -1.41560        7.08450        1.47740
H         -2.34530        5.79080        2.21540
H          1.66380        0.10610        0.21170
H          3.39200        2.39080        0.67370
H          4.12590        2.41430       -1.71240
H          2.88840        1.22800       -2.12290
H          2.42590        2.83860       -1.58890
H          5.17490        0.80730        0.01660
H          4.18500        0.13900        1.30340
H          3.97470       -0.42790       -0.35100
31
Structure1
C         -1.53290        3.11210        2.20080
C         -0.33160        3.91010        1.68000
C          0.73780        3.15910        1.03120
C          0.72800        1.82170        0.84970
C         -0.46690        0.97400        1.27960
C         -1.74550        1.84370        1.34160
C         -0.24000        5.25470        1.75610
C         -1.23280        6.21150        2.39520
N          1.69140        1.11350        0.16470
C          2.94340        1.59850       -0.39660
C          3.40440        0.68970       -1.54320
C          4.02860        1.72150        0.68300
H         -2.44670        3.70320        2.14540
H         -1.39240        2.85610        3.25150
H          1.58820        3.71470        0.66620
H         -0.26020        0.42030        2.19580
H         -0.68200        0.23030        0.51030
H         -2.58120        1.25870        1.72790
H         -2.02830        2.14510        0.33050
H          0.63180        5.73840        1.33660
H         -0.71460        6.86840        3.09420
H         -1.70140        6.82980        1.62940
H         -2.02100        5.70430        2.94940
H          1.63430        0.10620        0.17270
H          2.76220        2.58710       -0.82440
H          4.31800        1.06810       -2.00300
H          3.60290       -0.32600       -1.19890
H          2.64850        0.63220       -2.32750
H          4.95650        2.11740        0.26930
H          3.71480        2.39680        1.47990
H          4.25100        0.75670        1.14010
31
Structure1
C         -1.35870        2.98230        2.30050
C         -0.44220        4.05820        1.70460
C          0.66870        3.60310        0.87570
C          0.92320        2.31210        0.59020
C          0.00720        1.19060        1.08120
C         -1.40780        1.74640        1.37130
C         -0.63740        5.38290        1.87530
C         -1.72050        6.05600        2.70210
N          1.93500        1.95070       -0.26870
C          2.77020        0.76300       -0.16990
C          3.84900        0.93060        0.91010
C          3.39730        0.43420       -1.53050
H         -2.37760        3.35350        2.40680
H         -1.02230        2.70810        3.30100
H          1.32590        4.35040        0.45420
H          0.45070        0.64180        1.91210
H         -0.14180        0.46980        0.27580
H         -2.03640        0.96810        1.80590
H         -1.88450        2.03080        0.43060
H          0.04300        6.07250        1.39450
H         -1.26970        6.77880        3.38250
H         -2.41240        6.58800        2.04890
H         -2.29600        5.35620        3.30610
H          2.41800        2.70620       -0.73130
H          2.13830       -0.08310        0.10830
H          4.45580        0.02990        1.00760
H          4.51840        1.76150        0.68440
H          3.40040        1.12630        1.88490
H          3.98990       -0.47990       -1.48170
H          2.62930        0.28140       -2.28990
H          4.05090        1.23520       -1.87820
31
Structure1
C         -1.68510        3.13580        1.45450
C         -0.48220        4.07570        1.60330
C          0.83590        3.52280        1.31150
C          1.05890        2.24720        0.94240
C         -0.08070        1.23190        0.85170
C         -1.26310        1.67620        1.74590
C         -0.58210        5.35460        2.02340
C         -1.85210        6.11590        2.36580
N          2.33350        1.76140        0.76500
C          2.75320        0.77380       -0.21810
C          4.07040        0.11600        0.21190
C          2.87760        1.39880       -1.61530
H         -2.11830        3.22770        0.45790
H         -2.47320        3.39660        2.16040
H          1.69180        4.17580        1.40680
H          0.24700        0.28440        1.28220
H         -0.35580        1.02520       -0.18270
H         -0.97290        1.59570        2.79580
H         -2.10990        1.00160        1.61340
H          0.32310        5.93760        2.12670
H         -1.88110        6.33270        3.43380
H         -1.87220        7.06220        1.82490
H         -2.76010        5.57390        2.10610
H          3.08670        2.38810        1.00580
H          1.99760       -0.01340       -0.26310
H          4.37360       -0.65860       -0.49330
H          4.88200        0.84170        0.27670
H          3.97180       -0.35760        1.18950
H          3.16100        0.65360       -2.35910
H          1.92970        1.83290       -1.93610
H          3.62540        2.19240       -1.63580
31
Structure1
C         -1.56210        2.99840        1.95790
C         -0.54110        4.07460        1.57220
C          0.61740        3.64550        0.79660
C          0.85870        2.37380        0.42340
C         -0.06370        1.23100        0.86120
C         -0.85610        1.63360        2.12860
C         -0.64290        5.36820        1.94430
C         -1.76700        6.01380        2.73760
N          2.02410        2.04380       -0.23450
C          2.73410        0.77350       -0.26810
C          3.53630        0.54840        1.02240
C          3.64630        0.70570       -1.49950
H         -2.35450        2.93980        1.21090
H         -2.04450        3.23880        2.90480
H          1.33670        4.39880        0.50780
H          0.52120        0.37180        1.18660
H         -0.68650        0.88360        0.03670
H         -0.17230        1.69420        2.97820
H         -1.58250        0.85950        2.37980
H          0.13980        6.05430        1.65040
H         -1.40370        6.31980        3.71880
H         -2.12530        6.90080        2.21470
H         -2.62190        5.35540        2.88360
H          2.62930        2.81290       -0.48030
H          2.00220       -0.02980       -0.37410
H          4.03790       -0.41960        1.01350
H          4.29740        1.31730        1.16040
H          2.88870        0.57010        1.89950
H          4.15250       -0.25810       -1.56320
H          3.07420        0.83120       -2.41970
H          4.41270        1.48160       -1.47830
31
Structure1
C         -1.60510        3.04980        1.83280
C         -0.44930        4.05420        1.76340
C          0.86590        3.53210        1.40910
C          1.12260        2.24230        1.11700
C         -0.00200        1.20260        1.06540
C         -1.36640        1.89570        0.83220
C         -0.59820        5.37960        1.97210
C         -1.87070        6.11510        2.35870
N          2.37950        1.85130        0.70800
C          2.76690        0.71980       -0.12170
C          4.24130        0.36740        0.11310
C          2.49950        1.00030       -1.60810
H         -2.55030        3.52290        1.56830
H         -1.72010        2.67100        2.84890
H          1.69060        4.22960        1.37070
H          0.02240        0.54580        1.93500
H          0.11180        0.56040        0.19310
H         -2.17470        1.16590        0.89480
H         -1.39890        2.29690       -0.18330
H          0.26860        6.01920        1.87490
H         -1.68300        6.74490        3.22850
H         -2.19610        6.75480        1.53820
H         -2.69200        5.44690        2.61290
H          3.09290        2.56470        0.71830
H          2.18280       -0.15040        0.18460
H          4.53570       -0.50660       -0.46870
H          4.90270        1.18890       -0.16540
H          4.42740        0.13440        1.16240
H          2.75500        0.13910       -2.22610
H          1.44740        1.22590       -1.78500
H          3.07970        1.85160       -1.96590
31
Structure1
C         -1.49420        3.13930        2.12140
C         -0.23960        3.83950        1.58690
C          0.81590        2.99320        1.04050
C          0.75350        1.64740        0.96260
C         -0.49610        0.89220        1.41150
C         -1.73460        1.81830        1.35460
C         -0.08850        5.18070        1.56050
C         -1.05760        6.22800        2.08370
N          1.69950        0.83250        0.37380
C          2.98230        1.14260       -0.25040
C          4.00520        1.72880        0.73600
C          2.83830        1.96790       -1.53910
H         -2.37680        3.76350        1.98520
H         -1.40260        2.96070        3.19330
H          1.69770        3.48440        0.66430
H         -0.34830        0.40590        2.37610
H         -0.72060        0.09880        0.69660
H         -2.61000        1.30240        1.75140
H         -1.96600        2.05100        0.31280
H          0.81900        5.59060        1.13840
H         -0.53350        6.91760        2.74570
H         -1.47240        6.80040        1.25380
H         -1.88570        5.80170        2.64780
H          1.48730       -0.15300        0.32750
H          3.38310        0.17410       -0.55770
H          4.98510        1.83240        0.26950
H          3.71320        2.71170        1.10250
H          4.12630        1.08090        1.60470
H          3.79840        2.07870       -2.04360
H          2.15720        1.48400       -2.23970
H          2.45190        2.96830       -1.34990
