19
generated by VMD
C          1.99445       -2.10779       -0.01038
C          1.69807       -0.61501        0.02801
C          0.55367       -1.62095       -0.00879
H          2.30613       -2.56370        0.95390
H          2.30484       -2.52967       -0.99028
H          0.03398       -1.78420        0.95911
H          0.04874       -1.78663       -0.98202
C          2.14163        0.16578       -1.22306
C          1.51114        1.54974       -1.35323
C          1.17324        0.46161       -2.36511
H          0.66643        1.77611       -0.66763
H          2.15327        2.35444       -1.77099
H          1.63324        0.62865       -3.36211
H          0.13103        0.09809       -2.25998
O          1.98386       -0.05234        1.27752
H          1.25153        0.59251        1.45325
N          3.57025        0.13627       -1.55428
H          3.78806        0.78486       -2.34591
H          3.79414       -0.82424       -1.89884
19
generated by VMD
C          2.08566       -2.10866        0.09361
C          1.72270       -0.63153        0.02985
C          0.63376       -1.68773       -0.08657
H          2.31005       -2.50249        1.10784
H          2.52519       -2.55310       -0.82389
H          0.01423       -1.83655        0.82343
H          0.24994       -1.90434       -1.10548
C          2.14451        0.15615       -1.22890
C          1.63547        1.58958       -1.29662
C          1.11633        0.55104       -2.28019
H          0.88275        1.88159       -0.53303
H          2.32489        2.32880       -1.75813
H          1.51205        0.67771       -3.31045
H          0.06353        0.25984       -2.08299
O          1.77040        0.02170        1.26765
H          2.72945        0.21405        1.43183
N          3.51748        0.02676       -1.70815
H          3.61588       -0.91204       -2.15574
H          4.15561        0.04800       -0.88034
19
generated by VMD
C          0.69928       -0.73275        0.89756
C          1.64802       -0.92571       -0.27926
C          2.17905       -0.98065        1.14640
H          0.05802       -1.60716        1.13840
H          0.39469        0.30563        1.14099
H          2.39466       -1.99597        1.54304
H          2.70969       -0.07766        1.51691
C          2.15617        0.26397       -1.11887
C          1.33514        1.53710       -1.27098
C          1.38272        0.52185       -2.40407
H          0.34492        1.56879       -0.77257
H          1.91731        2.45949       -1.48133
H          1.98443        0.86096       -3.27468
H          0.42940       -0.03530       -2.52782
O          1.62887       -2.18719       -0.88567
H          0.78222       -2.22300       -1.40037
N          3.59706        0.42068       -1.29443
H          3.99896       -0.51453       -1.53278
H          4.00450        0.70978       -0.37690
19
generated by VMD
C          2.00752       -2.10756        0.00377
C          1.69487       -0.61790        0.03292
C          0.56177       -1.63570       -0.01810
H          2.30910       -2.55708        0.97411
H          2.33640       -2.52996       -0.96970
H          0.02863       -1.80063        0.94231
H          0.07336       -1.80537       -0.99918
C          2.14149        0.16643       -1.21772
C          1.53929        1.55778       -1.35354
C          1.17352        0.46972       -2.35321
H          0.70810        1.80675       -0.65957
H          2.20785        2.33827       -1.77650
H          1.63811        0.61477       -3.35181
H          0.12620        0.12368       -2.23767
O          1.95462       -0.04705        1.28436
H          1.20861        0.58456        1.44945
N          3.55323        0.13159       -1.58780
H          3.77274       -0.82947       -1.93378
H          4.11964        0.28801       -0.72311
19
generated by VMD
C          1.28045       -0.54403        1.18780
C          1.57528       -0.88632       -0.26488
C          2.47552       -1.42071        0.84039
H          0.43732       -1.10331        1.64622
H          1.57365        0.47163        1.52774
H          2.33145       -2.49212        1.09627
H          3.45137       -0.90558        0.96859
C          2.16091        0.20132       -1.18490
C          1.62504        1.62681       -1.09053
C          1.22657        0.73935       -2.26433
H          0.79085        1.79583       -0.37746
H          2.33283        2.43693       -1.36680
H          1.70339        1.03327       -3.22373
H          0.17017        0.39902       -2.21423
O          0.72600       -1.84910       -0.82449
H          1.28668       -2.36118       -1.46259
N          3.55654        0.04998       -1.60838
H          3.86570        0.86366       -2.18882
H          3.60998       -0.79610       -2.22004
19
generated by VMD
C          2.13897       -2.08085        0.11000
C          1.71297       -0.62157        0.02804
C          0.67589       -1.72552       -0.11482
H          2.35372       -2.45805        1.13263
H          2.63455       -2.49744       -0.79279
H          0.03537       -1.89436        0.77679
H          0.32978       -1.95091       -1.14566
C          2.14189        0.16718       -1.22350
C          1.67564        1.61826       -1.29251
C          1.08503        0.58260       -2.24263
H          0.96273        1.94345       -0.50490
H          2.36654        2.33222       -1.78963
H          1.43160        0.69412       -3.29192
H          0.03293        0.32565       -1.99746
O          1.69971        0.03908        1.26270
H          2.64487        0.27530        1.44939
N          3.49622       -0.06187       -1.73660
H          4.16882        0.29490       -1.02021
H          3.66648        0.48557       -2.61164
19
generated by VMD
C          0.96203       -0.60721        1.08060
C          1.58960       -0.89970       -0.27692
C          2.37377       -1.16625        1.00111
H          0.20798       -1.34757        1.42239
H          0.93505        0.45593        1.39821
H          2.44456       -2.23119        1.30999
H          3.15304       -0.42042        1.26812
C          2.15425        0.22982       -1.15696
C          1.46027        1.58851       -1.17883
C          1.30134        0.63234       -2.35575
H          0.52873        1.68598       -0.58324
H          2.10214        2.46582       -1.40666
H          1.85279        0.95515       -3.26464
H          0.28687        0.18377       -2.41477
O          1.18745       -2.08358       -0.90677
H          0.24850       -1.93219       -1.18633
N          3.59760        0.22337       -1.41579
H          3.88456        1.05679       -1.97952
H          3.81095       -0.62151       -1.99332
19
generated by VMD
C          2.07567       -2.10842        0.07767
C          1.72444       -0.62792        0.02510
C          0.62484       -1.67467       -0.07898
H          2.31111       -2.50901        1.08680
H          2.49652       -2.55379       -0.84815
H          0.01836       -1.82285        0.83976
H          0.22467       -1.88878       -1.09198
C          2.14455        0.15860       -1.23197
C          1.60316        1.58557       -1.29534
C          1.11804        0.54178       -2.29383
H          0.83038        1.85387       -0.54308
H          2.26354        2.35444       -1.74987
H          1.51691        0.68934       -3.31997
H          0.06823        0.23152       -2.11174
O          1.79990        0.01814        1.26535
H          2.76344        0.20199        1.41292
N          3.53571        0.02425       -1.67732
H          3.76995        0.73580       -2.40767
H          3.62789       -0.90595       -2.14362
19
generated by VMD
C          0.65517       -0.76810        0.85045
C          1.66118       -0.92456       -0.28386
C          2.13317       -0.94255        1.16357
H          0.04747       -1.67067        1.07358
H          0.29167        0.25530        1.07475
H          2.38003       -1.94306        1.57911
H          2.60445       -0.01196        1.54616
C          2.15484        0.27674       -1.11118
C          1.29978        1.52851       -1.29036
C          1.38662        0.49959       -2.41126
H          0.30209        1.54073       -0.80683
H          1.85132        2.46717       -1.51010
H          1.97507        0.85085       -3.28572
H          0.44641       -0.07939       -2.53680
O          1.72941       -2.19072       -0.87683
H          0.91104       -2.27030       -1.43068
N          3.60615        0.43840       -1.24985
H          3.97954        0.74105       -0.32230
H          3.83838        1.20809       -1.91960
19
generated by VMD
C          0.48723       -0.92423        0.50302
C          1.80091       -0.90667       -0.25161
C          1.77553       -0.74051        1.25063
H         -0.07650       -1.85678        0.60824
H         -0.19867       -0.07182        0.37847
H          2.14837       -1.54594        1.89398
H          2.01486        0.23117        1.69669
C          2.14907        0.27163       -1.13234
C          1.10575        1.34827       -1.35086
C          1.45697        0.41264       -2.46800
H          0.13441        1.24283       -0.84075
H          1.39186        2.40441       -1.40082
H          2.00881        0.78593       -3.33895
H          0.73711       -0.34934       -2.78822
O          2.27350       -2.14819       -0.69458
H          2.46859       -2.05164       -1.61737
N          3.57734        0.60438       -1.06558
H          3.87273        0.59755       -0.11243
H          3.73451        1.50568       -1.46368
